-------------------------------------------------------
          Amber 22 PMEMD                              2022
          -------------------------------------------------------

  [-O]verwriting output

File Assignments:

 Here is the input file:

&cntrl
imin            = 0
nstlim          = 2500
dt              = 0.001
irest           = 0
ntx             = 1
ntxo            = 1
ntc             = 2
ntf             = 1
ntwx            = 0
ntwr            = 1000
ntpr            = 100
cut             = 8
iwrap           = 1

ntb             = 2
temp0           = 298.
ntt             = 3
gamma_ln        = 2.
tautp           = 1
ntp             = 1
barostat        = 2
pres0           = 1.01325
taup            = 5.0

ifsc            = 1
icfe            = 1

ifmbar          = 1
bar_intervall   = 20
mbar_states     = 11
mbar_lambda(1)     = 0.00000000
mbar_lambda(2)     = 0.10000000
mbar_lambda(3)     = 0.20000000
mbar_lambda(4)     = 0.30000000
mbar_lambda(5)     = 0.40000000
mbar_lambda(6)     = 0.50000000
mbar_lambda(7)     = 0.60000000
mbar_lambda(8)     = 0.70000000
mbar_lambda(9)     = 0.80000000
mbar_lambda(10)     = 0.90000000
mbar_lambda(11)     = 1.00000000

noshakemask     = '@1-90'

clambda         = 0.60000000
timask1         = '@1-45'
timask2         = '@46-90'
crgmask         = ""
scmask1         = '@41'
scmask2         = '@90'
scalpha         = 0.5
scbeta          = 1.0

gti_cut         = 1
gti_output      = 1
gti_add_sc      = 5
gti_scale_beta  = 1
gti_cut_sc_on   = 8
gti_cut_sc_off  = 10
gti_lam_sch     = 1
gti_ele_sc      = 1
gti_vdw_sc      = 1
gti_cut_sc      = 2
gti_ele_exp     = 2
gti_vdw_exp     = 2

gremd_acyc      = 1
/
 &ewald
 /

Note: ig = -1. Setting random seed to   769070 based on wallclock time in
      microseconds.

--------------------------------------------------------------------------------
   1.  RESOURCE   USE:
--------------------------------------------------------------------------------

 getting new box info from bottom of inpcrd
 NATOM  =  138653 NTYPES =      29 NBONH =  101618 MBONA  =   36976
 NTHETH =   10441 MTHETA =    6285 NPHIH =   20796 MPHIA  =   19835
 NHPARM =       0 NPARM  =       0 NNB   =  277104 NRES   =   33079
 NBONA  =   36976 NTHETA =    6285 NPHIA =   19835 NUMBND =      89
 NUMANG =     195 NPTRA  =     220 NATYP =      53 NPHB   =       0
 IFBOX  =       1 NMXRS  =      45 IFCAP =       0 NEXTRA =   32347
 NCOPY  =       0

     BOX TYPE: RECTILINEAR

--------------------------------------------------------------------------------
   2.  CONTROL  DATA  FOR  THE  RUN
--------------------------------------------------------------------------------

default_name

General flags:
     imin    =       0, nmropt  =       0

Nature and format of input:
     ntx     =       1, irest   =       0, ntrx    =       1

Nature and format of output:
     ntxo    =       1, ntpr    =     100, ntrx    =       1, ntwr    =    1000
     iwrap   =       1, ntwx    =       0, ntwv    =       0, ntwe    =       0
     ioutfm  =       1, ntwprt  =       0, idecomp =       0, rbornstat=      0

Potential function:
     ntf     =       1, ntb     =       2, igb     =       0, nsnb    =      25
     ipol    =       0, gbsa    =       0, iesp    =       0
     dielc   =   1.00000, cut     =   8.00000, intdiel =   1.00000

Frozen or restrained atoms:
     ibelly  =       0, ntr     =       0

Molecular dynamics:
     nstlim  =      2500, nscm    =      1000, nrespa  =         1
     t       =   0.00000, dt      =   0.00100, vlimit  =  -1.00000

Langevin dynamics temperature regulation:
     ig      =  769070
     temp0   = 298.00000, tempi   =   0.00000, gamma_ln=   2.00000

Pressure regulation:
     ntp     =       1
     pres0   =   1.01325, comp    =  44.60000, taup    =   5.00000
     Monte-Carlo Barostat:
     mcbarint  =     100

SHAKE:
     ntc     =       2, jfastw  =       0
     tol     =   0.00001

Free energy options:
     icfe    =       1, ifsc    =       1, klambda =       1
     clambda =  0.6000, scalpha =  0.5000, scbeta  =  1.0000
     sceeorder =       2
     dynlmb =  0.0000 logdvdl =       0

FEP MBAR options:
     ifmbar  =       1,  bar_intervall =       20
     mbar_states =      11

Extra-points options:
     frameon =       1, chngmask=       1

Ewald parameters:
     verbose =       0, ew_type =       0, nbflag  =       1, use_pme =       1
     vdwmeth =       1, eedmeth =       1, netfrc  =       1
     Box X =  105.030   Box Y =  101.335   Box Z =   98.772
     Alpha =   90.000   Beta  =   90.000   Gamma =   90.000
     NFFT1 =  108       NFFT2 =  108       NFFT3 =  100
     Cutoff=    8.000   Tol   =0.100E-04
     Ewald Coefficient =  0.34864
     Interpolation order =    4
     TI Mask 1 @1-45; matches     45 atoms
     TI Mask 2 @46-90; matches     45 atoms
     TI region 1:  138608 atoms
     TI region 2:  138608 atoms
     SC Mask 1 @41; matches      1 atoms
     SC Mask 2 @90; matches      1 atoms

    MBAR - lambda values considered:
      11 total:  0.0000 0.1000 0.2000 0.3000 0.4000 0.5000 0.6000 0.7000 0.8000 0.9000 1.0000
    Extra energies will be computed    125 times.

 Noshake mask @1-90; matches      90 atoms.

--------------------------------------------------------------------------------
   3.  ATOMIC COORDINATES AND VELOCITIES
--------------------------------------------------------------------------------

Cpptraj Generated Restart
 begin time read from input coords =  2000.000 ps

     Molecule     1 is partially softcore
     Molecule     2 is partially softcore
 Number of triangulated 3-point waters found:    32347
   Removing shake constraints from C18   L00   1 -- H21   L00   1
   Removing shake constraints from N5    L00   1 -- H20   L00   1
   Removing shake constraints from N3    L00   1 -- H19   L00   1
   Removing shake constraints from C13   L00   1 -- H18   L00   1
   Removing shake constraints from C12   L00   1 -- H17   L00   1
   Removing shake constraints from C11   L00   1 -- H16   L00   1
   Removing shake constraints from C10   L00   1 -- H15   L00   1
   Removing shake constraints from C9    L00   1 -- H13   L00   1
   Removing shake constraints from C9    L00   1 -- H14   L00   1
   Removing shake constraints from C8    L00   1 -- H11   L00   1
   Removing shake constraints from C8    L00   1 -- H12   L00   1
   Removing shake constraints from C7    L00   1 -- H9    L00   1
   Removing shake constraints from C7    L00   1 -- H10   L00   1
   Removing shake constraints from C6    L00   1 -- H7    L00   1
   Removing shake constraints from C6    L00   1 -- H8    L00   1
   Removing shake constraints from C5    L00   1 -- H5    L00   1
   Removing shake constraints from C5    L00   1 -- H6    L00   1
   Removing shake constraints from C4    L00   1 -- H4    L00   1
   Removing shake constraints from C3    L00   1 -- H2    L00   1
   Removing shake constraints from C3    L00   1 -- H3    L00   1
   Removing shake constraints from C2    L00   1 -- H1    L00   1
   Removing shake constraints from C18   L01   2 -- H20   L01   2
   Removing shake constraints from N5    L01   2 -- H19   L01   2
   Removing shake constraints from N3    L01   2 -- H18   L01   2
   Removing shake constraints from C13   L01   2 -- H17   L01   2
   Removing shake constraints from C11   L01   2 -- H16   L01   2
   Removing shake constraints from C10   L01   2 -- H15   L01   2
   Removing shake constraints from C9    L01   2 -- H13   L01   2
   Removing shake constraints from C9    L01   2 -- H14   L01   2
   Removing shake constraints from C8    L01   2 -- H11   L01   2
   Removing shake constraints from C8    L01   2 -- H12   L01   2
   Removing shake constraints from C7    L01   2 -- H9    L01   2
   Removing shake constraints from C7    L01   2 -- H10   L01   2
   Removing shake constraints from C6    L01   2 -- H7    L01   2
   Removing shake constraints from C6    L01   2 -- H8    L01   2
   Removing shake constraints from C5    L01   2 -- H5    L01   2
   Removing shake constraints from C5    L01   2 -- H6    L01   2
   Removing shake constraints from C4    L01   2 -- H4    L01   2
   Removing shake constraints from C3    L01   2 -- H2    L01   2
   Removing shake constraints from C3    L01   2 -- H3    L01   2
   Removing shake constraints from C2    L01   2 -- H1    L01   2
 Number of shake restraints removed in TI region  1 :       21
 Number of shake restraints removed in TI region  2 :       20

     Sum of charges for TI region  1 =   0.00003522
     Skip neutralizing charges...

     Sum of charges for TI region  2 =   0.00103522
     Skip neutralizing charges...

--------------------------------------------------------------------------------
   4.  RESULTS
 NSTEP =        0   TIME(PS) =       0.000  TEMP(K) =     0.00  PRESS =     0.0
 Etot   =   -389061.2168  EKtot   =         0.0000  EPtot      =   -389061.2168
 BOND   =      1731.0280  ANGLE   =      4622.0111  DIHED      =      7175.5806
 1-4 NB =      2111.3583  1-4 EEL =     23744.3261  VDWAALS    =     61162.4071
 EELEC  =   -489607.9280  EHBOND  =         0.0000  RESTRAINT  =         0.0000
 EKCMT  =         0.0000  VIRIAL  =         0.0000  VOLUME     =   1051248.6194
                                                    Density    =         1.0291
 DV/DL  =        -9.8674
 ------------------------------------------------------------------------------

      A V E R A G E S   O V E R      25 S T E P S

 NSTEP =     2500   TIME(PS) =       2.500  TEMP(K) =   273.68  PRESS =     0.0
 Etot   =   -341456.2021  EKtot   =     59058.9069  EPtot      =   -400515.1090
 BOND   =      1528.9626  ANGLE   =      4336.2294  DIHED      =      7080.2626
 1-4 NB =      2084.8438  1-4 EEL =     23754.1126  VDWAALS    =     65804.8741
 EELEC  =   -505104.3941  EHBOND  =         0.0000  RESTRAINT  =         0.0000
 EKCMT  =         0.0000  VIRIAL  =         0.0000  VOLUME     =   1046525.0239
                                                    Density    =         1.0337
 DV/DL  =       -13.7856
 ------------------------------------------------------------------------------

      R M S  F L U C T U A T I O N S

 NSTEP =     2500   TIME(PS) =       2.500  TEMP(K) =    25.78  PRESS =     0.0
 Etot   =     13394.2454  EKtot   =      5563.2875  EPtot      =      7852.7552
 BOND   =       149.0990  ANGLE   =       356.3482  DIHED      =        93.8593
 1-4 NB =        34.3980  1-4 EEL =        52.1676  VDWAALS    =      2287.2067
 EELEC  =      9466.1167  EHBOND  =         0.0000  RESTRAINT  =         0.0000
 EKCMT  =         0.0000  VIRIAL  =         0.0000  VOLUME     =      1870.0625
                                                    Density    =         0.0018
 DV/DL  =         5.5135
 ------------------------------------------------------------------------------

      A V E R A G E S   O V E R      25 S T E P S

 NSTEP =     2500   TIME(PS) =       2.500  TEMP(K) =   273.68  PRESS =     0.0
 Etot   =   -341456.2831  EKtot   =     59058.8259  EPtot      =   -400515.1090
 BOND   =      1528.9626  ANGLE   =      4336.2294  DIHED      =      7080.2626
 1-4 NB =      2084.8438  1-4 EEL =     23754.1126  VDWAALS    =     65804.8741
 EELEC  =   -505104.3941  EHBOND  =         0.0000  RESTRAINT  =         0.0000
 EKCMT  =         0.0000  VIRIAL  =         0.0000  VOLUME     =   1046525.0239
                                                    Density    =         1.0338
 DV/DL  =       -13.7856
 ------------------------------------------------------------------------------

      R M S  F L U C T U A T I O N S

 NSTEP =     2500   TIME(PS) =       2.500  TEMP(K) =    25.78  PRESS =     0.0
 Etot   =     13393.9452  EKtot   =      5563.0111  EPtot      =      7852.7552
 BOND   =       149.0990  ANGLE   =       356.3482  DIHED      =        93.8593
 1-4 NB =        34.3980  1-4 EEL =        52.1676  VDWAALS    =      2287.2067
 EELEC  =      9466.1167  EHBOND  =         0.0000  RESTRAINT  =         0.0000
 EKCMT  =         0.0000  VIRIAL  =         0.0000  VOLUME     =      1870.0625
                                                    Density    =         0.0018
 DV/DL  =         5.5135
 ------------------------------------------------------------------------------

      DV/DL, AVERAGES OVER      25 STEPS

 NSTEP =     2500   TIME(PS) =       2.500  TEMP(K) =    25.78  PRESS =     0.0
 Etot   =         0.0000  EKtot   =         0.0000  EPtot      =         0.0000
 BOND   =         0.0000  ANGLE   =         0.0000  DIHED      =        -0.8682
 1-4 NB =        -0.0618  1-4 EEL =       -33.0369  VDWAALS    =        -5.2764
 EELEC  =        21.4077  EHBOND  =         0.0000  RESTRAINT  =         0.0000
 EKCMT  =         0.0000  VIRIAL  =         0.0000  VOLUME     =         0.0000
                                                    Density    =         0.0000
 ------------------------------------------------------------------------------
