-------------------------------------------------------
          Amber 22 PMEMD                              2022
          -------------------------------------------------------

  [-O]verwriting output

File Assignments:

 Here is the input file:

Production
 &cntrl
  imin=0,irest=1,ntx=5,
  nstlim=10000,dt=0.001,
  ntc=2,ntf=2,
  cut=8.0,
  ntpr=100, ntwx=1000,
  ntb=2, ntp=1, taup=2.0,
  ntt=3, gamma_ln=2.0, temp0=300.0,
 /
 &ewald
  nfft1=128,
  nfft2=128,
  nfft3=128,
 /

Note: ig = -1. Setting random seed to   903081 based on wallclock time in
      microseconds.

--------------------------------------------------------------------------------
   1.  RESOURCE   USE:
--------------------------------------------------------------------------------

 getting new box info from bottom of inpcrd
 NATOM  =  239131 NTYPES =      22 NBONH =  231051 MBONA  =    7957
 NTHETH =   16541 MTHETA =   10987 NPHIH =   33764 MPHIA  =   32970
 NHPARM =       0 NPARM  =       0 NNB   =  381658 NRES   =   75880
 NBONA  =    7957 NTHETA =   10987 NPHIA =   32970 NUMBND =     105
 NUMANG =     242 NPTRA  =     235 NATYP =      49 NPHB   =       1
 IFBOX  =       1 NMXRS  =      34 IFCAP =       0 NEXTRA =       0
 NCOPY  =       0

     BOX TYPE: RECTILINEAR

--------------------------------------------------------------------------------
   2.  CONTROL  DATA  FOR  THE  RUN
--------------------------------------------------------------------------------

default_name

General flags:
     imin    =       0, nmropt  =       0

Nature and format of input:
     ntx     =       5, irest   =       1, ntrx    =       1

Nature and format of output:
     ntxo    =       2, ntpr    =     100, ntrx    =       1, ntwr    =   10000
     iwrap   =       0, ntwx    =    1000, ntwv    =       0, ntwe    =       0
     ioutfm  =       1, ntwprt  =       0, idecomp =       0, rbornstat=      0

Potential function:
     ntf     =       2, ntb     =       2, igb     =       0, nsnb    =      25
     ipol    =       0, gbsa    =       0, iesp    =       0
     dielc   =   1.00000, cut     =   8.00000, intdiel =   1.00000

Frozen or restrained atoms:
     ibelly  =       0, ntr     =       0

Molecular dynamics:
     nstlim  =     10000, nscm    =      1000, nrespa  =         1
     t       =   0.00000, dt      =   0.00100, vlimit  =  -1.00000

Langevin dynamics temperature regulation:
     ig      =  903081
     temp0   = 300.00000, tempi   =   0.00000, gamma_ln=   2.00000

Pressure regulation:
     ntp     =       1
     pres0   =   1.00000, comp    =  44.60000, taup    =   2.00000

SHAKE:
     ntc     =       2, jfastw  =       0
     tol     =   0.00001

Ewald parameters:
     verbose =       0, ew_type =       0, nbflag  =       1, use_pme =       1
     vdwmeth =       1, eedmeth =       1, netfrc  =       1
     Box X =  134.196   Box Y =  134.196   Box Z =  134.196
     Alpha =   90.000   Beta  =   90.000   Gamma =   90.000
     NFFT1 =  128       NFFT2 =  128       NFFT3 =  128
     Cutoff=    8.000   Tol   =0.100E-04
     Ewald Coefficient =  0.34864
     Interpolation order =    4

--------------------------------------------------------------------------------
   3.  ATOMIC COORDINATES AND VELOCITIES
--------------------------------------------------------------------------------

Created with ParmEd
 begin time read from input coords =     0.000 ps

 Number of triangulated 3-point waters found:    74595

     Sum of charges from parm topology file =  -0.00000040
     Forcing neutrality...

--------------------------------------------------------------------------------
   4.  RESULTS
 NSTEP =      100   TIME(PS) =       0.100  TEMP(K) =   300.01  PRESS =     5.9
 Etot   =   -632993.5196  EKtot   =    144972.4219  EPtot      =   -777965.9415
 BOND   =      2910.8384  ANGLE   =      7892.0730  DIHED      =     12072.8634
 1-4 NB =      3428.4402  1-4 EEL =     26642.7674  VDWAALS    =    102583.7327
 EELEC  =   -933496.6565  EHBOND  =         0.0000  RESTRAINT  =         0.0000
 EKCMT  =     66855.6117  VIRIAL  =     66548.6784  VOLUME     =   2415663.5369
                                                    Density    =         1.0070
 ------------------------------------------------------------------------------

      A V E R A G E S   O V E R     100 S T E P S

 NSTEP =    10000   TIME(PS) =      10.000  TEMP(K) =   299.92  PRESS =    32.8
 Etot   =   -633118.8883  EKtot   =    144930.9827  EPtot      =   -778049.8709
 BOND   =      2912.5780  ANGLE   =      7801.3398  DIHED      =     12024.3428
 1-4 NB =      3421.9751  1-4 EEL =     26693.6532  VDWAALS    =    103210.2472
 EELEC  =   -934114.0070  EHBOND  =         0.0000  RESTRAINT  =         0.0000
 EKCMT  =     67101.4741  VIRIAL  =     65384.9195  VOLUME     =   2426730.4944
                                                    Density    =         1.0025
 ------------------------------------------------------------------------------

      R M S  F L U C T U A T I O N S

 NSTEP =    10000   TIME(PS) =      10.000  TEMP(K) =     0.61  PRESS =    60.7
 Etot   =       587.1725  EKtot   =       293.3354  EPtot      =       493.8995
 BOND   =        50.6205  ANGLE   =        68.2861  DIHED      =        36.5372
 1-4 NB =        24.4336  1-4 EEL =        66.8877  VDWAALS    =       426.9582
 EELEC  =       780.6374  EHBOND  =         0.0000  RESTRAINT  =         0.0000
 EKCMT  =       201.8726  VIRIAL  =      3171.4338  VOLUME     =      4724.0934
                                                    Density    =         0.0020
 ------------------------------------------------------------------------------
