-------------------------------------------------------
          Amber 22 PMEMD                              2022
          -------------------------------------------------------

  [-O]verwriting output

File Assignments:

 Here is the input file:

 short md, nve ensemble; "production" DHFR run from Amber web site
 &cntrl
   ntx=5, irest=1,
   ntc=2, ntf=2, tol=0.000001,
   nstlim=10000,
   ntpr=1000, ntwx=1000, ntwr=10000,
   dt=0.002,
   cut=8.,
   ntt=0, ioutfm=1,
 /
 &ewald
  dsum_tol=0.000001,
 /

Note: ig = -1. Setting random seed to   441131 based on wallclock time in
      microseconds.

--------------------------------------------------------------------------------
   1.  RESOURCE   USE:
--------------------------------------------------------------------------------

 getting new box info from bottom of inpcrd
 NATOM  =   23558 NTYPES =      16 NBONH =   22290 MBONA  =    1302
 NTHETH =    2789 MTHETA =    1772 NPHIH =    5026 MPHIA  =    3140
 NHPARM =       0 NPARM  =       0 NNB   =   41859 NRES   =    7182
 NBONA  =    1302 NTHETA =    1772 NPHIA =    3140 NUMBND =      45
 NUMANG =      91 NPTRA  =      33 NATYP =      31 NPHB   =       1
 IFBOX  =       1 NMXRS  =      25 IFCAP =       0 NEXTRA =       0
 NCOPY  =       0

     BOX TYPE: RECTILINEAR

--------------------------------------------------------------------------------
   2.  CONTROL  DATA  FOR  THE  RUN
--------------------------------------------------------------------------------

General flags:
     imin    =       0, nmropt  =       0

Nature and format of input:
     ntx     =       5, irest   =       1, ntrx    =       1

Nature and format of output:
     ntxo    =       2, ntpr    =    1000, ntrx    =       1, ntwr    =   10000
     iwrap   =       0, ntwx    =    1000, ntwv    =       0, ntwe    =       0
     ioutfm  =       1, ntwprt  =       0, idecomp =       0, rbornstat=      0

Potential function:
     ntf     =       2, ntb     =       1, igb     =       0, nsnb    =      25
     ipol    =       0, gbsa    =       0, iesp    =       0
     dielc   =   1.00000, cut     =   8.00000, intdiel =   1.00000

Frozen or restrained atoms:
     ibelly  =       0, ntr     =       0

Molecular dynamics:
     nstlim  =     10000, nscm    =      1000, nrespa  =         1
     t       =   0.00000, dt      =   0.00200, vlimit  =  -1.00000

SHAKE:
     ntc     =       2, jfastw  =       0
     tol     =   0.00000

Ewald parameters:
     verbose =       0, ew_type =       0, nbflag  =       1, use_pme =       1
     vdwmeth =       1, eedmeth =       1, netfrc  =       1
     Box X =   62.230   Box Y =   62.230   Box Z =   62.230
     Alpha =   90.000   Beta  =   90.000   Gamma =   90.000
     NFFT1 =   64       NFFT2 =   64       NFFT3 =   64
     Cutoff=    8.000   Tol   =0.100E-05
     Ewald Coefficient =  0.39467
     Interpolation order =    4

--------------------------------------------------------------------------------
   3.  ATOMIC COORDINATES AND VELOCITIES
--------------------------------------------------------------------------------

 begin time read from input coords =     6.000 ps

 Number of triangulated 3-point waters found:     7023

     Sum of charges from parm topology file = -11.00000006
     Assuming uniform neutralizing plasma

--------------------------------------------------------------------------------
   4.  RESULTS
 NSTEP =     1000   TIME(PS) =       8.000  TEMP(K) =   297.16  PRESS =     0.0
 Etot   =    -58138.3319  EKtot   =     14284.9199  EPtot      =    -72423.2518
 BOND   =       426.8731  ANGLE   =      1162.1050  DIHED      =       996.2827
 1-4 NB =       567.5140  1-4 EEL =      6623.4931  VDWAALS    =      8517.6772
 EELEC  =    -90717.1967  EHBOND  =         0.0000  RESTRAINT  =         0.0000
 ------------------------------------------------------------------------------

      A V E R A G E S   O V E R      10 S T E P S

 NSTEP =    10000   TIME(PS) =      26.000  TEMP(K) =   296.71  PRESS =     0.0
 Etot   =    -58140.8686  EKtot   =     14263.2691  EPtot      =    -72404.1378
 BOND   =       458.8722  ANGLE   =      1217.7371  DIHED      =       985.6149
 1-4 NB =       550.6188  1-4 EEL =      6599.8836  VDWAALS    =      8383.7240
 EELEC  =    -90600.5883  EHBOND  =         0.0000  RESTRAINT  =         0.0000
 ------------------------------------------------------------------------------

      R M S  F L U C T U A T I O N S

 NSTEP =    10000   TIME(PS) =      26.000  TEMP(K) =     1.57  PRESS =     0.0
 Etot   =         1.5648  EKtot   =        75.6016  EPtot      =        76.4265
 BOND   =        22.3711  ANGLE   =        32.1860  DIHED      =         9.9713
 1-4 NB =         8.5969  1-4 EEL =        26.9309  VDWAALS    =       102.1053
 EELEC  =       111.8761  EHBOND  =         0.0000  RESTRAINT  =         0.0000
 ------------------------------------------------------------------------------
