Info: SIMULATION PARAMETERS:
Info: TIMESTEP               1
Info: NUMBER OF STEPS        100000
Info: STEPS PER CYCLE        10
Info: PERIODIC CELL BASIS 1  133.931 0 0
Info: PERIODIC CELL BASIS 2  0 133.931 0
Info: PERIODIC CELL BASIS 3  0 0 133.931
Info: PERIODIC CELL CENTER   0 0 0
Info: WRAPPING ALL CLUSTERS AROUND PERIODIC BOUNDARIES ON OUTPUT.
Info: FIRST LDB TIMESTEP     50
Info: LAST LDB TIMESTEP     -1
Info: HOM BACKGROUND SCALING 1
Info: PME BACKGROUND SCALING 1
Info: MIN ATOMS PER PATCH    40
Info: EMPTY PATCH LOAD       40 ATOMS
Info: VELOCITY FILE          equilibration.vel
Info: CENTER OF MASS MOVING INITIALLY? NO
Info: DIELECTRIC             1
Info: EXCLUDE                SCALED ONE-FOUR
Info: 1-4 ELECTROSTATICS SCALED BY 0.833333
Info: MODIFIED 1-4 VDW PARAMETERS WILL BE USED
Info: DCD FILENAME           _prod.dcd
Info: DCD FREQUENCY          100000
Info: DCD FIRST STEP         100000
Info: DCD FILE WILL CONTAIN UNIT CELL DATA
Info: NO EXTENDED SYSTEM TRAJECTORY OUTPUT
Info: NO VELOCITY DCD OUTPUT
Info: NO FORCE DCD OUTPUT
Info: OUTPUT FILENAME        _prod
Info: BINARY OUTPUT FILES WILL BE USED
Info: RESTART FILENAME       _prod.restart
Info: RESTART FREQUENCY      100000
Info: BINARY RESTART FILES WILL BE USED
Info: CUTOFF                 8
Info: PAIRLIST DISTANCE      11
Info: PAIRLIST SHRINK RATE   0.01
Info: PAIRLIST GROW RATE     0.01
Info: PAIRLIST TRIGGER       0.3
Info: PAIRLISTS PER CYCLE    2
Info: PAIRLISTS ENABLED
Info: MARGIN                 4
Info: HYDROGEN GROUP CUTOFF  2.5
Info: PATCH DIMENSION        17.5
Info: ENERGY OUTPUT STEPS    2000
Info: ENERGY EVALUATION STEPS    2000
Info: OUTPUT ENERGY PRECISION 4
Info: OUPUT ENERGY PRECISION 4
Info: CROSSTERM ENERGY INCLUDED IN DIHEDRAL
Info: TIMING OUTPUT STEPS    100000
Info: PRESSURE OUTPUT STEPS  100000
Info: LANGEVIN DYNAMICS ACTIVE
Info: LANGEVIN TEMPERATURE   300
Info: LANGEVIN USING BBK INTEGRATOR
Info: LANGEVIN DAMPING COEFFICIENT IS 1 INVERSE PS
Info: LANGEVIN DYNAMICS APPLIED TO HYDROGENS
Info: LANGEVIN PISTON PRESSURE CONTROL ACTIVE
Info:        TARGET PRESSURE IS 1 BAR
Info:     OSCILLATION PERIOD IS 200 FS
Info:             DECAY TIME IS 100 FS
Info:     PISTON TEMPERATURE IS 300 K
Info:       PRESSURE CONTROL IS GROUP-BASED
Info:    INITIAL STRAIN RATE IS -1.05525e-05 -1.05525e-05 -1.05525e-05
Info:       CELL FLUCTUATION IS ISOTROPIC
Info: PARTICLE MESH EWALD (PME) ACTIVE
Info: PME TOLERANCE               1e-06
Info: PME EWALD COEFFICIENT       0.39467
Info: PME INTERPOLATION ORDER     4
Info: PME GRID DIMENSIONS         144 144 144
Info: PME MAXIMUM GRID SPACING    1.5
Info: FULL ELECTROSTATIC EVALUATION FREQUENCY      1
Info: USING VERLET I (r-RESPA) MTS SCHEME.
Info: C1 SPLITTING OF LONG RANGE ELECTROSTATICS
Info: PLACING ATOMS IN PATCHES BY HYDROGEN GROUPS
Info: RIGID BONDS TO HYDROGEN : ALL
Info:         ERROR TOLERANCE : 1e-08
Info:          MAX ITERATIONS : 100
Info: RIGID WATER USING SETTLE ALGORITHM
Info: RANDOM NUMBER SEED     1702312845
Info: USE HYDROGEN BONDS?    NO
Info: Using AMBER format force field!
Info: AMBER PARM FILE        prmtop.parm7
Info: AMBER COORDINATE FILE  inpcrd.rst7
Info: Exclusions will be read from PARM file!
Info: SCNB (VDW SCALING)     2
Info: USING ARITHMETIC MEAN TO COMBINE L-J SIGMA PARAMETERS
Info: BINARY COORDINATES     equilibration.coor
Info: SUMMARY OF PARAMETERS:
Info: 105 BONDS
Info: 242 ANGLES
Info: 235 DIHEDRAL
Info: 0 IMPROPER
Info: 0 CROSSTERM
Info: 0 VDW
Info: 253 VDW_PAIRS
Info: 0 NBTHOLE_PAIRS
Info: LONG-RANGE LJ: APPLYING ANALYTICAL CORRECTIONS TO ENERGY AND PRESSURE
Info: LONG-RANGE LJ: AVERAGE A AND B COEFFICIENTS 527247 AND 521.626
Info: STRUCTURE SUMMARY:
Info: 239131 ATOMS
Info: 239008 BONDS
Info: 27528 ANGLES
Info: 66734 DIHEDRALS
Info: 0 IMPROPERS
Info: 0 CROSSTERMS
Info: 305924 EXCLUSIONS
Info: 231074 RIGID BONDS
Info: 486319 DEGREES OF FREEDOM
Info: 82652 HYDROGEN GROUPS
Info: 4 ATOMS IN LARGEST HYDROGEN GROUP
Info: 82652 MIGRATION GROUPS
Info: 4 ATOMS IN LARGEST MIGRATION GROUP
Info: TOTAL MASS = 1.46497e+06 amu
Info: TOTAL CHARGE = -3.09271e-05 e
Info: MASS DENSITY = 1.01262 g/cm^3
Info: ATOM DENSITY = 0.0995391 atoms/A^3
Info: ADDED 0 IMPLICIT EXCLUSIONS
Info: NONBONDED TABLE R-SQUARED SPACING: 0.0625
Info: NONBONDED TABLE SIZE: 705 POINTS
Info: REMOVING COM VELOCITY -0.0124497 0.0121635 0.012263
Info: Use 3D box decompostion in PME FFT.
Info: Updated CUDA force table with 4096 elements.
Info: Updated CUDA LJ table with 22 x 22 elements.
Info: Found 474 unique exclusion lists needing 1716 bytes
ETITLE: TS BOND ANGLE DIHED IMPRP ELECT VDW BOUNDARY MISC KINETIC TOTAL TEMP POTENTIAL TOTAL3 TEMPAVG PRESSURE GPRESSURE VOLUME PRESSAVG GPRESSAVG
ENERGY: 0 2909.7332 7770.8359 12145.8295 0.0000 -910287.9027 103150.5249 0.0000 0.0000 145407.1481 -638903.8311 300.9227 -784310.9792 -638799.7944 300.9227 -36.1990 -36.2293 2402382.7696 -36.1990 -36.2293
ENERGY: 20000 2858.1060 7717.5330 12077.2864 0.0000 -909210.3440 102789.0932 0.0000 0.0000 145214.1362 -638554.1892 300.5232 -783768.3254 -638467.3110 300.2538 -67.5190 -64.6692 2401843.6958 13.4698 2.3882
ENERGY: 40000 2932.0214 7875.5874 12054.9005 0.0000 -910435.4274 103369.9463 0.0000 0.0000 145010.7070 -639192.2648 300.1022 -784202.9718 -639102.6693 300.0800 12.1037 5.2785 2403848.7259 11.5634 0.8495
ENERGY: 60000 2930.6703 7857.6672 12114.0912 0.0000 -910796.6226 103556.7416 0.0000 0.0000 144758.2939 -639579.1584 299.5799 -784337.4523 -639497.2154 300.1551 34.3954 26.7058 2397918.1030 12.5727 1.4535
ENERGY: 80000 2850.7425 7810.4087 12011.1787 0.0000 -909741.0189 102918.0805 0.0000 0.0000 145199.6336 -638950.9748 300.4932 -784150.6085 -638852.2655 300.2795 5.3584 -1.6645 2403254.7501 10.1018 -0.8786
ENERGY: 100000 2906.2600 7819.1213 12061.7630 0.0000 -910016.0375 102679.8153 0.0000 0.0000 144950.5631 -639598.5148 299.9778 -784549.0779 -639492.1437 300.0657 -69.4534 -84.3749 2401990.6360 9.7807 -0.9993
