Info: SIMULATION PARAMETERS:
Info: TIMESTEP               1
Info: NUMBER OF STEPS        100000
Info: STEPS PER CYCLE        10
Info: PERIODIC CELL BASIS 1  133.931 0 0
Info: PERIODIC CELL BASIS 2  0 133.931 0
Info: PERIODIC CELL BASIS 3  0 0 133.931
Info: PERIODIC CELL CENTER   0 0 0
Info: WRAPPING ALL CLUSTERS AROUND PERIODIC BOUNDARIES ON OUTPUT.
Info: FIRST LDB TIMESTEP     50
Info: LAST LDB TIMESTEP     -1
Info: HOM BACKGROUND SCALING 1
Info: PME BACKGROUND SCALING 1
Info: MIN ATOMS PER PATCH    40
Info: EMPTY PATCH LOAD       40 ATOMS
Info: VELOCITY FILE          equilibration.vel
Info: CENTER OF MASS MOVING INITIALLY? NO
Info: DIELECTRIC             1
Info: EXCLUDE                SCALED ONE-FOUR
Info: 1-4 ELECTROSTATICS SCALED BY 0.833333
Info: MODIFIED 1-4 VDW PARAMETERS WILL BE USED
Info: DCD FILENAME           _prod.dcd
Info: DCD FREQUENCY          100000
Info: DCD FIRST STEP         100000
Info: DCD FILE WILL CONTAIN UNIT CELL DATA
Info: NO EXTENDED SYSTEM TRAJECTORY OUTPUT
Info: NO VELOCITY DCD OUTPUT
Info: NO FORCE DCD OUTPUT
Info: OUTPUT FILENAME        _prod
Info: BINARY OUTPUT FILES WILL BE USED
Info: RESTART FILENAME       _prod.restart
Info: RESTART FREQUENCY      100000
Info: BINARY RESTART FILES WILL BE USED
Info: CUTOFF                 8
Info: PAIRLIST DISTANCE      11
Info: PAIRLIST SHRINK RATE   0.01
Info: PAIRLIST GROW RATE     0.01
Info: PAIRLIST TRIGGER       0.3
Info: PAIRLISTS PER CYCLE    2
Info: PAIRLISTS ENABLED
Info: MARGIN                 4
Info: HYDROGEN GROUP CUTOFF  2.5
Info: PATCH DIMENSION        17.5
Info: ENERGY OUTPUT STEPS    2000
Info: ENERGY EVALUATION STEPS    2000
Info: OUTPUT ENERGY PRECISION 4
Info: OUPUT ENERGY PRECISION 4
Info: CROSSTERM ENERGY INCLUDED IN DIHEDRAL
Info: TIMING OUTPUT STEPS    100000
Info: PRESSURE OUTPUT STEPS  100000
Info: LANGEVIN DYNAMICS ACTIVE
Info: LANGEVIN TEMPERATURE   300
Info: LANGEVIN USING BBK INTEGRATOR
Info: LANGEVIN DAMPING COEFFICIENT IS 1 INVERSE PS
Info: LANGEVIN DYNAMICS APPLIED TO HYDROGENS
Info: LANGEVIN PISTON PRESSURE CONTROL ACTIVE
Info:        TARGET PRESSURE IS 1 BAR
Info:     OSCILLATION PERIOD IS 200 FS
Info:             DECAY TIME IS 100 FS
Info:     PISTON TEMPERATURE IS 300 K
Info:       PRESSURE CONTROL IS GROUP-BASED
Info:    INITIAL STRAIN RATE IS -1.05525e-05 -1.05525e-05 -1.05525e-05
Info:       CELL FLUCTUATION IS ISOTROPIC
Info: PARTICLE MESH EWALD (PME) ACTIVE
Info: PME TOLERANCE               1e-06
Info: PME EWALD COEFFICIENT       0.39467
Info: PME INTERPOLATION ORDER     4
Info: PME GRID DIMENSIONS         144 144 144
Info: PME MAXIMUM GRID SPACING    1.5
Info: FULL ELECTROSTATIC EVALUATION FREQUENCY      1
Info: USING VERLET I (r-RESPA) MTS SCHEME.
Info: C1 SPLITTING OF LONG RANGE ELECTROSTATICS
Info: PLACING ATOMS IN PATCHES BY HYDROGEN GROUPS
Info: RIGID BONDS TO HYDROGEN : ALL
Info:         ERROR TOLERANCE : 1e-08
Info:          MAX ITERATIONS : 100
Info: RIGID WATER USING SETTLE ALGORITHM
Info: RANDOM NUMBER SEED     1702317002
Info: USE HYDROGEN BONDS?    NO
Info: Using AMBER format force field!
Info: AMBER PARM FILE        prmtop.parm7
Info: AMBER COORDINATE FILE  inpcrd.rst7
Info: Exclusions will be read from PARM file!
Info: SCNB (VDW SCALING)     2
Info: USING ARITHMETIC MEAN TO COMBINE L-J SIGMA PARAMETERS
Info: BINARY COORDINATES     equilibration.coor
Info: SUMMARY OF PARAMETERS:
Info: 105 BONDS
Info: 242 ANGLES
Info:   242 HARMONIC
Info:   0 COSINE-BASED
Info: 235 DIHEDRAL
Info: 0 IMPROPER
Info: 0 CROSSTERM
Info: 0 VDW
Info: 253 VDW_PAIRS
Info: 0 NBTHOLE_PAIRS
Info: LONG-RANGE LJ: APPLYING ANALYTICAL CORRECTIONS TO ENERGY AND PRESSURE
Info: LONG-RANGE LJ: AVERAGE A AND B COEFFICIENTS 527247 AND 521.626
Info: STRUCTURE SUMMARY:
Info: 239131 ATOMS
Info: 239008 BONDS
Info: 27528 ANGLES
Info: 66734 DIHEDRALS
Info: 0 IMPROPERS
Info: 0 CROSSTERMS
Info: 305924 EXCLUSIONS
Info: 231074 RIGID BONDS
Info: 486319 DEGREES OF FREEDOM
Info: 82652 HYDROGEN GROUPS
Info: 4 ATOMS IN LARGEST HYDROGEN GROUP
Info: 82652 MIGRATION GROUPS
Info: 4 ATOMS IN LARGEST MIGRATION GROUP
Info: TOTAL MASS = 1.46497e+06 amu
Info: TOTAL CHARGE = -3.09271e-05 e
Info: MASS DENSITY = 1.01262 g/cm^3
Info: ATOM DENSITY = 0.0995391 atoms/A^3
Info: ADDED 0 IMPLICIT EXCLUSIONS
Info: NONBONDED TABLE R-SQUARED SPACING: 0.0625
Info: NONBONDED TABLE SIZE: 705 POINTS
Info: REMOVING COM VELOCITY -0.0124497 0.0121635 0.012263
Info: Use 3D box decompostion in PME FFT.
Info: Updated CUDA force table with 4096 elements.
Info: Updated CUDA LJ table with 22 x 22 elements.
Info: Found 474 unique exclusion lists needing 1716 bytes
ETITLE: TS BOND ANGLE DIHED IMPRP ELECT VDW BOUNDARY MISC KINETIC TOTAL TEMP POTENTIAL TOTAL3 TEMPAVG PRESSURE GPRESSURE VOLUME PRESSAVG GPRESSAVG
ENERGY: 0 2909.7332 7770.8359 12145.8288 0.0000 -910287.9015 103150.5249 0.0000 0.0000 145407.1481 -638903.8306 300.9227 -784310.9787 -638799.7939 300.9227 -36.1990 -36.2294 2402382.7696 -36.1990 -36.2294
ENERGY: 20000 2918.5071 7993.1769 12071.0899 0.0000 -909593.6634 103111.5450 0.0000 0.0000 144638.0303 -638861.3141 299.3310 -783499.3444 -638777.6181 300.2733 64.9861 48.3707 2398419.2471 11.7765 0.5401
ENERGY: 40000 2878.3328 7837.1365 12027.8611 0.0000 -910166.7278 102927.0082 0.0000 0.0000 144765.2084 -639731.1809 299.5942 -784496.3892 -639639.9268 299.7372 12.8258 7.1997 2397117.7069 11.3893 0.5793
ENERGY: 60000 2939.8465 7782.4223 12067.0250 0.0000 -910236.6589 103200.4593 0.0000 0.0000 144948.3078 -639298.5980 299.9731 -784246.9059 -639190.0463 300.0059 -31.4970 -36.7126 2399267.2421 10.5700 -0.3945
ENERGY: 80000 2917.2523 7781.9044 12073.2967 0.0000 -908692.7290 102497.0361 0.0000 0.0000 145386.3342 -638036.9054 300.8796 -783423.2396 -637940.8049 300.7505 -67.9331 -67.2561 2403302.3983 12.1587 0.9820
ENERGY: 100000 2885.1298 7861.1030 12054.5485 0.0000 -910614.5214 103583.9379 0.0000 0.0000 144833.6070 -639396.1950 299.7357 -784229.8020 -639292.7902 300.3828 39.1448 36.4664 2400434.6212 12.9508 1.7569
