-------------------------------------------------------
          Amber 22 PMEMD                              2022
          -------------------------------------------------------

  [-O]verwriting output

File Assignments:

 Here is the input file:

Production
 &cntrl
  imin=0,irest=1,ntx=5,
  nstlim=10000,dt=0.001,
  ntc=2,ntf=2,
  cut=8.0,
  ntpr=100, ntwx=1000,
  ntb=2, ntp=1, taup=2.0,
  ntt=3, gamma_ln=2.0, temp0=300.0,
 /
 &ewald
  nfft1=128,
  nfft2=128,
  nfft3=128,
 /

Note: ig = -1. Setting random seed to   269573 based on wallclock time in
      microseconds.

--------------------------------------------------------------------------------
   1.  RESOURCE   USE:
--------------------------------------------------------------------------------

 getting new box info from bottom of inpcrd
 NATOM  =  239131 NTYPES =      22 NBONH =  231051 MBONA  =    7957
 NTHETH =   16541 MTHETA =   10987 NPHIH =   33764 MPHIA  =   32970
 NHPARM =       0 NPARM  =       0 NNB   =  381658 NRES   =   75880
 NBONA  =    7957 NTHETA =   10987 NPHIA =   32970 NUMBND =     105
 NUMANG =     242 NPTRA  =     235 NATYP =      49 NPHB   =       1
 IFBOX  =       1 NMXRS  =      34 IFCAP =       0 NEXTRA =       0
 NCOPY  =       0

     BOX TYPE: RECTILINEAR

--------------------------------------------------------------------------------
   2.  CONTROL  DATA  FOR  THE  RUN
--------------------------------------------------------------------------------

default_name

General flags:
     imin    =       0, nmropt  =       0

Nature and format of input:
     ntx     =       5, irest   =       1, ntrx    =       1

Nature and format of output:
     ntxo    =       2, ntpr    =     100, ntrx    =       1, ntwr    =   10000
     iwrap   =       0, ntwx    =    1000, ntwv    =       0, ntwe    =       0
     ioutfm  =       1, ntwprt  =       0, idecomp =       0, rbornstat=      0

Potential function:
     ntf     =       2, ntb     =       2, igb     =       0, nsnb    =      25
     ipol    =       0, gbsa    =       0, iesp    =       0
     dielc   =   1.00000, cut     =   8.00000, intdiel =   1.00000

Frozen or restrained atoms:
     ibelly  =       0, ntr     =       0

Molecular dynamics:
     nstlim  =     10000, nscm    =      1000, nrespa  =         1
     t       =   0.00000, dt      =   0.00100, vlimit  =  -1.00000

Langevin dynamics temperature regulation:
     ig      =  269573
     temp0   = 300.00000, tempi   =   0.00000, gamma_ln=   2.00000

Pressure regulation:
     ntp     =       1
     pres0   =   1.00000, comp    =  44.60000, taup    =   2.00000

SHAKE:
     ntc     =       2, jfastw  =       0
     tol     =   0.00001

Ewald parameters:
     verbose =       0, ew_type =       0, nbflag  =       1, use_pme =       1
     vdwmeth =       1, eedmeth =       1, netfrc  =       1
     Box X =  134.196   Box Y =  134.196   Box Z =  134.196
     Alpha =   90.000   Beta  =   90.000   Gamma =   90.000
     NFFT1 =  128       NFFT2 =  128       NFFT3 =  128
     Cutoff=    8.000   Tol   =0.100E-04
     Ewald Coefficient =  0.34864
     Interpolation order =    4

--------------------------------------------------------------------------------
   3.  ATOMIC COORDINATES AND VELOCITIES
--------------------------------------------------------------------------------

Created with ParmEd
 begin time read from input coords =     0.000 ps

 Number of triangulated 3-point waters found:    74595

     Sum of charges from parm topology file =  -0.00000040
     Forcing neutrality...

--------------------------------------------------------------------------------
   4.  RESULTS
 NSTEP =      100   TIME(PS) =       0.100  TEMP(K) =   300.85  PRESS =   -65.7
 Etot   =   -633048.5779  EKtot   =    145378.0781  EPtot      =   -778426.6560
 BOND   =      2910.1817  ANGLE   =      7850.9379  DIHED      =     12069.3362
 1-4 NB =      3442.4159  1-4 EEL =     26726.8661  VDWAALS    =    102057.4430
 EELEC  =   -933483.8367  EHBOND  =         0.0000  RESTRAINT  =         0.0000
 EKCMT  =     67342.8375  VIRIAL  =     70771.9876  VOLUME     =   2415548.9689
                                                    Density    =         1.0071
 ------------------------------------------------------------------------------

      A V E R A G E S   O V E R     100 S T E P S

 NSTEP =    10000   TIME(PS) =      10.000  TEMP(K) =   300.11  PRESS =    26.3
 Etot   =   -632750.4792  EKtot   =    145022.5425  EPtot      =   -777773.0217
 BOND   =      2914.0371  ANGLE   =      7811.5614  DIHED      =     12039.2162
 1-4 NB =      3429.2580  1-4 EEL =     26711.5463  VDWAALS    =    103000.0448
 EELEC  =   -933678.6856  EHBOND  =         0.0000  RESTRAINT  =         0.0000
 EKCMT  =     67124.3493  VIRIAL  =     65748.5075  VOLUME     =   2426566.5711
                                                    Density    =         1.0025
 ------------------------------------------------------------------------------

      R M S  F L U C T U A T I O N S

 NSTEP =    10000   TIME(PS) =      10.000  TEMP(K) =     0.63  PRESS =    62.5
 Etot   =       556.5317  EKtot   =       305.1293  EPtot      =       466.8416
 BOND   =        42.0188  ANGLE   =        62.2782  DIHED      =        42.9008
 1-4 NB =        22.9103  1-4 EEL =        62.2391  VDWAALS    =       463.9834
 EELEC  =       760.2025  EHBOND  =         0.0000  RESTRAINT  =         0.0000
 EKCMT  =       210.6308  VIRIAL  =      3257.5598  VOLUME     =      4163.9636
                                                    Density    =         0.0017
 ------------------------------------------------------------------------------
