-------------------------------------------------------
          Amber 22 PMEMD                              2022
          -------------------------------------------------------

  [-O]verwriting output

File Assignments:

 Here is the input file:

 short md, nve ensemble; "production" DHFR run from Amber web site
 &cntrl
   ntx=5, irest=1,
   ntc=2, ntf=2, tol=0.000001,
   nstlim=10000,
   ntpr=1000, ntwx=1000, ntwr=10000,
   dt=0.002,
   cut=8.,
   ntt=0, ioutfm=1,
 /
 &ewald
  dsum_tol=0.000001,
 /

Note: ig = -1. Setting random seed to     1750 based on wallclock time in
      microseconds and disabling the synchronization of random numbers
      between tasks to improve performance.

--------------------------------------------------------------------------------
   1.  RESOURCE   USE:
--------------------------------------------------------------------------------

 getting new box info from bottom of inpcrd
 NATOM  =   23558 NTYPES =      16 NBONH =   22290 MBONA  =    1302
 NTHETH =    2789 MTHETA =    1772 NPHIH =    5026 MPHIA  =    3140
 NHPARM =       0 NPARM  =       0 NNB   =   41859 NRES   =    7182
 NBONA  =    1302 NTHETA =    1772 NPHIA =    3140 NUMBND =      45
 NUMANG =      91 NPTRA  =      33 NATYP =      31 NPHB   =       1
 IFBOX  =       1 NMXRS  =      25 IFCAP =       0 NEXTRA =       0
 NCOPY  =       0

     BOX TYPE: RECTILINEAR

--------------------------------------------------------------------------------
   2.  CONTROL  DATA  FOR  THE  RUN
--------------------------------------------------------------------------------

General flags:
     imin    =       0, nmropt  =       0

Nature and format of input:
     ntx     =       5, irest   =       1, ntrx    =       1

Nature and format of output:
     ntxo    =       2, ntpr    =    1000, ntrx    =       1, ntwr    =   10000
     iwrap   =       0, ntwx    =    1000, ntwv    =       0, ntwe    =       0
     ioutfm  =       1, ntwprt  =       0, idecomp =       0, rbornstat=      0

Potential function:
     ntf     =       2, ntb     =       1, igb     =       0, nsnb    =      25
     ipol    =       0, gbsa    =       0, iesp    =       0
     dielc   =   1.00000, cut     =   8.00000, intdiel =   1.00000

Frozen or restrained atoms:
     ibelly  =       0, ntr     =       0

Molecular dynamics:
     nstlim  =     10000, nscm    =      1000, nrespa  =         1
     t       =   0.00000, dt      =   0.00200, vlimit  =  -1.00000

SHAKE:
     ntc     =       2, jfastw  =       0
     tol     =   0.00000

Ewald parameters:
     verbose =       0, ew_type =       0, nbflag  =       1, use_pme =       1
     vdwmeth =       1, eedmeth =       1, netfrc  =       1
     Box X =   62.230   Box Y =   62.230   Box Z =   62.230
     Alpha =   90.000   Beta  =   90.000   Gamma =   90.000
     NFFT1 =   64       NFFT2 =   64       NFFT3 =   64
     Cutoff=    8.000   Tol   =0.100E-05
     Ewald Coefficient =  0.39467
     Interpolation order =    4

--------------------------------------------------------------------------------
   3.  ATOMIC COORDINATES AND VELOCITIES
--------------------------------------------------------------------------------

 begin time read from input coords =     6.000 ps

 Number of triangulated 3-point waters found:     7023

     Sum of charges from parm topology file = -11.00000006
     Assuming uniform neutralizing plasma

--------------------------------------------------------------------------------
   4.  RESULTS
 NSTEP =     1000   TIME(PS) =       8.000  TEMP(K) =   293.88  PRESS =     0.0
 Etot   =    -58138.4819  EKtot   =     14127.3145  EPtot      =    -72265.7963
 BOND   =       429.5972  ANGLE   =      1188.0102  DIHED      =       974.6806
 1-4 NB =       551.4620  1-4 EEL =      6615.9186  VDWAALS    =      8633.6727
 EELEC  =    -90659.1377  EHBOND  =         0.0000  RESTRAINT  =         0.0000
 ------------------------------------------------------------------------------

      A V E R A G E S   O V E R      10 S T E P S

 NSTEP =    10000   TIME(PS) =      26.000  TEMP(K) =   296.70  PRESS =     0.0
 Etot   =    -58140.2217  EKtot   =     14262.7134  EPtot      =    -72402.9351
 BOND   =       453.6198  ANGLE   =      1236.1017  DIHED      =       990.9676
 1-4 NB =       551.7582  1-4 EEL =      6610.5416  VDWAALS    =      8422.5181
 EELEC  =    -90668.4421  EHBOND  =         0.0000  RESTRAINT  =         0.0000
 ------------------------------------------------------------------------------

      R M S  F L U C T U A T I O N S

 NSTEP =    10000   TIME(PS) =      26.000  TEMP(K) =     1.59  PRESS =     0.0
 Etot   =         1.9466  EKtot   =        76.3640  EPtot      =        77.2132
 BOND   =        18.9830  ANGLE   =        38.8475  DIHED      =        14.1062
 1-4 NB =         6.3597  1-4 EEL =        24.1193  VDWAALS    =       147.5236
 EELEC  =       140.4517  EHBOND  =         0.0000  RESTRAINT  =         0.0000
 ------------------------------------------------------------------------------
