Info: SIMULATION PARAMETERS:
Info: TIMESTEP               1
Info: NUMBER OF STEPS        100000
Info: STEPS PER CYCLE        10
Info: PERIODIC CELL BASIS 1  133.931 0 0
Info: PERIODIC CELL BASIS 2  0 133.931 0
Info: PERIODIC CELL BASIS 3  0 0 133.931
Info: PERIODIC CELL CENTER   0 0 0
Info: WRAPPING ALL CLUSTERS AROUND PERIODIC BOUNDARIES ON OUTPUT.
Info: FIRST LDB TIMESTEP     50
Info: LAST LDB TIMESTEP     -1
Info: HOM BACKGROUND SCALING 1
Info: PME BACKGROUND SCALING 1
Info: MIN ATOMS PER PATCH    40
Info: EMPTY PATCH LOAD       40 ATOMS
Info: VELOCITY FILE          equilibration.vel
Info: CENTER OF MASS MOVING INITIALLY? NO
Info: DIELECTRIC             1
Info: EXCLUDE                SCALED ONE-FOUR
Info: 1-4 ELECTROSTATICS SCALED BY 0.833333
Info: MODIFIED 1-4 VDW PARAMETERS WILL BE USED
Info: DCD FILENAME           _prod.dcd
Info: DCD FREQUENCY          100000
Info: DCD FIRST STEP         100000
Info: DCD FILE WILL CONTAIN UNIT CELL DATA
Info: NO EXTENDED SYSTEM TRAJECTORY OUTPUT
Info: NO VELOCITY DCD OUTPUT
Info: NO FORCE DCD OUTPUT
Info: OUTPUT FILENAME        _prod
Info: BINARY OUTPUT FILES WILL BE USED
Info: RESTART FILENAME       _prod.restart
Info: RESTART FREQUENCY      100000
Info: BINARY RESTART FILES WILL BE USED
Info: CUTOFF                 8
Info: PAIRLIST DISTANCE      11
Info: PAIRLIST SHRINK RATE   0.01
Info: PAIRLIST GROW RATE     0.01
Info: PAIRLIST TRIGGER       0.3
Info: PAIRLISTS PER CYCLE    2
Info: PAIRLISTS ENABLED
Info: MARGIN                 4
Info: HYDROGEN GROUP CUTOFF  2.5
Info: PATCH DIMENSION        17.5
Info: ENERGY OUTPUT STEPS    2000
Info: ENERGY EVALUATION STEPS    2000
Info: OUTPUT ENERGY PRECISION 4
Info: OUPUT ENERGY PRECISION 4
Info: CROSSTERM ENERGY INCLUDED IN DIHEDRAL
Info: TIMING OUTPUT STEPS    100000
Info: PRESSURE OUTPUT STEPS  100000
Info: LANGEVIN DYNAMICS ACTIVE
Info: LANGEVIN TEMPERATURE   300
Info: LANGEVIN USING BBK INTEGRATOR
Info: LANGEVIN DAMPING COEFFICIENT IS 1 INVERSE PS
Info: LANGEVIN DYNAMICS APPLIED TO HYDROGENS
Info: LANGEVIN PISTON PRESSURE CONTROL ACTIVE
Info:        TARGET PRESSURE IS 1 BAR
Info:     OSCILLATION PERIOD IS 200 FS
Info:             DECAY TIME IS 100 FS
Info:     PISTON TEMPERATURE IS 300 K
Info:       PRESSURE CONTROL IS GROUP-BASED
Info:    INITIAL STRAIN RATE IS -1.05525e-05 -1.05525e-05 -1.05525e-05
Info:       CELL FLUCTUATION IS ISOTROPIC
Info: PARTICLE MESH EWALD (PME) ACTIVE
Info: PME TOLERANCE               1e-06
Info: PME EWALD COEFFICIENT       0.39467
Info: PME INTERPOLATION ORDER     4
Info: PME GRID DIMENSIONS         144 144 144
Info: PME MAXIMUM GRID SPACING    1.5
Info: FULL ELECTROSTATIC EVALUATION FREQUENCY      1
Info: USING VERLET I (r-RESPA) MTS SCHEME.
Info: C1 SPLITTING OF LONG RANGE ELECTROSTATICS
Info: PLACING ATOMS IN PATCHES BY HYDROGEN GROUPS
Info: RIGID BONDS TO HYDROGEN : ALL
Info:         ERROR TOLERANCE : 1e-08
Info:          MAX ITERATIONS : 100
Info: RIGID WATER USING SETTLE ALGORITHM
Info: RANDOM NUMBER SEED     1702313374
Info: USE HYDROGEN BONDS?    NO
Info: Using AMBER format force field!
Info: AMBER PARM FILE        prmtop.parm7
Info: AMBER COORDINATE FILE  inpcrd.rst7
Info: Exclusions will be read from PARM file!
Info: SCNB (VDW SCALING)     2
Info: USING ARITHMETIC MEAN TO COMBINE L-J SIGMA PARAMETERS
Info: BINARY COORDINATES     equilibration.coor
Info: SUMMARY OF PARAMETERS:
Info: 105 BONDS
Info: 242 ANGLES
Info:   242 HARMONIC
Info:   0 COSINE-BASED
Info: 235 DIHEDRAL
Info: 0 IMPROPER
Info: 0 CROSSTERM
Info: 0 VDW
Info: 253 VDW_PAIRS
Info: 0 NBTHOLE_PAIRS
Info: LONG-RANGE LJ: APPLYING ANALYTICAL CORRECTIONS TO ENERGY AND PRESSURE
Info: LONG-RANGE LJ: AVERAGE A AND B COEFFICIENTS 527247 AND 521.626
Info: STRUCTURE SUMMARY:
Info: 239131 ATOMS
Info: 239008 BONDS
Info: 27528 ANGLES
Info: 66734 DIHEDRALS
Info: 0 IMPROPERS
Info: 0 CROSSTERMS
Info: 305924 EXCLUSIONS
Info: 231074 RIGID BONDS
Info: 486319 DEGREES OF FREEDOM
Info: 82652 HYDROGEN GROUPS
Info: 4 ATOMS IN LARGEST HYDROGEN GROUP
Info: 82652 MIGRATION GROUPS
Info: 4 ATOMS IN LARGEST MIGRATION GROUP
Info: TOTAL MASS = 1.46497e+06 amu
Info: TOTAL CHARGE = -3.09271e-05 e
Info: MASS DENSITY = 1.01262 g/cm^3
Info: ATOM DENSITY = 0.0995391 atoms/A^3
Info: ADDED 0 IMPLICIT EXCLUSIONS
Info: NONBONDED TABLE R-SQUARED SPACING: 0.0625
Info: NONBONDED TABLE SIZE: 705 POINTS
Info: REMOVING COM VELOCITY -0.0124497 0.0121635 0.012263
Info: Use 3D box decompostion in PME FFT.
Info: Updated CUDA force table with 4096 elements.
Info: Updated CUDA LJ table with 22 x 22 elements.
Info: Found 474 unique exclusion lists needing 1716 bytes
ETITLE: TS BOND ANGLE DIHED IMPRP ELECT VDW BOUNDARY MISC KINETIC TOTAL TEMP POTENTIAL TOTAL3 TEMPAVG PRESSURE GPRESSURE VOLUME PRESSAVG GPRESSAVG
ENERGY: 0 2909.7332 7770.8359 12145.8295 0.0000 -910287.9026 103150.5249 0.0000 0.0000 145407.1481 -638903.8310 300.9227 -784310.9791 -638799.7943 300.9227 -36.1989 -36.2293 2402382.7696 -36.1989 -36.2293
ENERGY: 20000 2867.8527 7904.7723 12019.6237 0.0000 -911727.6038 104404.3983 0.0000 0.0000 144937.2968 -639593.6599 299.9503 -784530.9568 -639484.5584 300.0737 57.2212 41.7645 2401990.1849 10.7160 -0.2320
ENERGY: 40000 2931.8684 7920.8836 12070.3347 0.0000 -909319.7901 103076.1074 0.0000 0.0000 145277.4685 -638043.1276 300.6543 -783320.5960 -637950.0333 300.9701 17.3548 8.8819 2403801.7801 11.7282 0.7827
ENERGY: 60000 2975.9682 7879.1707 12045.5431 0.0000 -909303.9440 103269.4637 0.0000 0.0000 144866.3283 -638267.4699 299.8034 -783133.7982 -638174.3568 300.0532 5.5313 -2.6758 2403633.0677 9.4699 -1.4608
ENERGY: 80000 2833.9796 7826.8597 11995.6858 0.0000 -910162.8428 102993.3784 0.0000 0.0000 144750.1429 -639762.7963 299.5630 -784512.9392 -639677.4743 299.7471 -46.6487 -59.5767 2399274.0416 10.1916 -0.8613
ENERGY: 100000 2912.8975 7709.5093 12026.8633 0.0000 -909374.0187 102766.9663 0.0000 0.0000 144813.0026 -639144.7797 299.6931 -783957.7822 -639048.3704 300.0475 -86.4084 -96.6674 2401247.6308 9.7581 -1.0728
