Info: SIMULATION PARAMETERS:
Info: TIMESTEP               1
Info: NUMBER OF STEPS        100000
Info: STEPS PER CYCLE        10
Info: PERIODIC CELL BASIS 1  133.931 0 0
Info: PERIODIC CELL BASIS 2  0 133.931 0
Info: PERIODIC CELL BASIS 3  0 0 133.931
Info: PERIODIC CELL CENTER   0 0 0
Info: WRAPPING ALL CLUSTERS AROUND PERIODIC BOUNDARIES ON OUTPUT.
Info: FIRST LDB TIMESTEP     50
Info: LAST LDB TIMESTEP     -1
Info: HOM BACKGROUND SCALING 1
Info: PME BACKGROUND SCALING 1
Info: MIN ATOMS PER PATCH    40
Info: EMPTY PATCH LOAD       40 ATOMS
Info: VELOCITY FILE          equilibration.vel
Info: CENTER OF MASS MOVING INITIALLY? NO
Info: DIELECTRIC             1
Info: EXCLUDE                SCALED ONE-FOUR
Info: 1-4 ELECTROSTATICS SCALED BY 0.833333
Info: MODIFIED 1-4 VDW PARAMETERS WILL BE USED
Info: DCD FILENAME           _prod.dcd
Info: DCD FREQUENCY          100000
Info: DCD FIRST STEP         100000
Info: DCD FILE WILL CONTAIN UNIT CELL DATA
Info: NO EXTENDED SYSTEM TRAJECTORY OUTPUT
Info: NO VELOCITY DCD OUTPUT
Info: NO FORCE DCD OUTPUT
Info: OUTPUT FILENAME        _prod
Info: BINARY OUTPUT FILES WILL BE USED
Info: RESTART FILENAME       _prod.restart
Info: RESTART FREQUENCY      100000
Info: BINARY RESTART FILES WILL BE USED
Info: CUTOFF                 8
Info: PAIRLIST DISTANCE      11
Info: PAIRLIST SHRINK RATE   0.01
Info: PAIRLIST GROW RATE     0.01
Info: PAIRLIST TRIGGER       0.3
Info: PAIRLISTS PER CYCLE    2
Info: PAIRLISTS ENABLED
Info: MARGIN                 4
Info: HYDROGEN GROUP CUTOFF  2.5
Info: PATCH DIMENSION        17.5
Info: ENERGY OUTPUT STEPS    2000
Info: ENERGY EVALUATION STEPS    2000
Info: OUTPUT ENERGY PRECISION 4
Info: OUPUT ENERGY PRECISION 4
Info: CROSSTERM ENERGY INCLUDED IN DIHEDRAL
Info: TIMING OUTPUT STEPS    100000
Info: PRESSURE OUTPUT STEPS  100000
Info: LANGEVIN DYNAMICS ACTIVE
Info: LANGEVIN TEMPERATURE   300
Info: LANGEVIN USING BBK INTEGRATOR
Info: LANGEVIN DAMPING COEFFICIENT IS 1 INVERSE PS
Info: LANGEVIN DYNAMICS APPLIED TO HYDROGENS
Info: LANGEVIN PISTON PRESSURE CONTROL ACTIVE
Info:        TARGET PRESSURE IS 1 BAR
Info:     OSCILLATION PERIOD IS 200 FS
Info:             DECAY TIME IS 100 FS
Info:     PISTON TEMPERATURE IS 300 K
Info:       PRESSURE CONTROL IS GROUP-BASED
Info:    INITIAL STRAIN RATE IS -1.05525e-05 -1.05525e-05 -1.05525e-05
Info:       CELL FLUCTUATION IS ISOTROPIC
Info: PARTICLE MESH EWALD (PME) ACTIVE
Info: PME TOLERANCE               1e-06
Info: PME EWALD COEFFICIENT       0.39467
Info: PME INTERPOLATION ORDER     4
Info: PME GRID DIMENSIONS         144 144 144
Info: PME MAXIMUM GRID SPACING    1.5
Info: FULL ELECTROSTATIC EVALUATION FREQUENCY      1
Info: USING VERLET I (r-RESPA) MTS SCHEME.
Info: C1 SPLITTING OF LONG RANGE ELECTROSTATICS
Info: PLACING ATOMS IN PATCHES BY HYDROGEN GROUPS
Info: RIGID BONDS TO HYDROGEN : ALL
Info:         ERROR TOLERANCE : 1e-08
Info:          MAX ITERATIONS : 100
Info: RIGID WATER USING SETTLE ALGORITHM
Info: RANDOM NUMBER SEED     1702315814
Info: USE HYDROGEN BONDS?    NO
Info: Using AMBER format force field!
Info: AMBER PARM FILE        prmtop.parm7
Info: AMBER COORDINATE FILE  inpcrd.rst7
Info: Exclusions will be read from PARM file!
Info: SCNB (VDW SCALING)     2
Info: USING ARITHMETIC MEAN TO COMBINE L-J SIGMA PARAMETERS
Info: BINARY COORDINATES     equilibration.coor
Info: SUMMARY OF PARAMETERS:
Info: 105 BONDS
Info: 242 ANGLES
Info:   242 HARMONIC
Info:   0 COSINE-BASED
Info: 235 DIHEDRAL
Info: 0 IMPROPER
Info: 0 CROSSTERM
Info: 0 VDW
Info: 253 VDW_PAIRS
Info: 0 NBTHOLE_PAIRS
Info: LONG-RANGE LJ: APPLYING ANALYTICAL CORRECTIONS TO ENERGY AND PRESSURE
Info: LONG-RANGE LJ: AVERAGE A AND B COEFFICIENTS 527247 AND 521.626
Info: STRUCTURE SUMMARY:
Info: 239131 ATOMS
Info: 239008 BONDS
Info: 27528 ANGLES
Info: 66734 DIHEDRALS
Info: 0 IMPROPERS
Info: 0 CROSSTERMS
Info: 305924 EXCLUSIONS
Info: 231074 RIGID BONDS
Info: 486319 DEGREES OF FREEDOM
Info: 82652 HYDROGEN GROUPS
Info: 4 ATOMS IN LARGEST HYDROGEN GROUP
Info: 82652 MIGRATION GROUPS
Info: 4 ATOMS IN LARGEST MIGRATION GROUP
Info: TOTAL MASS = 1.46497e+06 amu
Info: TOTAL CHARGE = -3.09271e-05 e
Info: MASS DENSITY = 1.01262 g/cm^3
Info: ATOM DENSITY = 0.0995391 atoms/A^3
Info: ADDED 0 IMPLICIT EXCLUSIONS
Info: NONBONDED TABLE R-SQUARED SPACING: 0.0625
Info: NONBONDED TABLE SIZE: 705 POINTS
Info: REMOVING COM VELOCITY -0.0124497 0.0121635 0.012263
Info: Use 3D box decompostion in PME FFT.
Info: Updated CUDA force table with 4096 elements.
Info: Updated CUDA LJ table with 22 x 22 elements.
Info: Found 474 unique exclusion lists needing 1716 bytes
ETITLE: TS BOND ANGLE DIHED IMPRP ELECT VDW BOUNDARY MISC KINETIC TOTAL TEMP POTENTIAL TOTAL3 TEMPAVG PRESSURE GPRESSURE VOLUME PRESSAVG GPRESSAVG
ENERGY: 0 2909.7332 7770.8359 12145.8295 0.0000 -910287.9027 103150.5249 0.0000 0.0000 145407.1481 -638903.8311 300.9227 -784310.9792 -638799.7944 300.9227 -36.1990 -36.2294 2402382.7696 -36.1990 -36.2294
ENERGY: 20000 2987.1125 7792.6771 11984.1619 0.0000 -909360.5588 102888.2533 0.0000 0.0000 145005.5968 -638702.7571 300.0917 -783708.3539 -638602.9784 300.0888 -23.4105 -31.5025 2402514.0236 14.2548 3.3673
ENERGY: 40000 2927.6329 7828.7401 12091.0385 0.0000 -909402.4246 102707.1682 0.0000 0.0000 145088.5033 -638759.3416 300.2632 -783847.8448 -638645.6596 300.2156 -63.0659 -73.7689 2403852.9923 14.3645 3.4696
ENERGY: 60000 2937.5841 7923.9609 11976.5997 0.0000 -909844.9186 103504.3382 0.0000 0.0000 144825.3767 -638677.0591 299.7187 -783502.4358 -638595.6031 300.3680 120.7065 103.5687 2401301.2789 12.3712 1.3258
ENERGY: 80000 2880.6678 7836.2533 12047.0548 0.0000 -910214.9197 103353.2014 0.0000 0.0000 145105.9661 -638991.7763 300.2994 -784097.7423 -638891.1618 299.7236 -3.5851 -22.1441 2402317.8565 11.4375 0.4100
ENERGY: 100000 2873.4895 7795.3173 12119.8987 0.0000 -910481.1007 103130.9824 0.0000 0.0000 145347.7240 -639213.6889 300.7997 -784561.4128 -639113.3025 300.1731 -14.9407 -20.0257 2400257.2808 12.9858 2.0308
